Circuit: * C:\Users\zayee\OneDrive - McMaster University\2nd Year\ELECENG 2EI4\P3\Version_4.asc

Warning: Multiple definitions of model "2scr375p" Type: BJT
Warning: Multiple definitions of model "bc857b" Type: BJT
Warning: Multiple definitions of model "bc847c" Type: BJT
Warning: Multiple definitions of model "bc847b" Type: BJT
WARNING: Node V_OUT is floating.

WARNING: Less than two connections to node v_out.  This node is used by r3.
Direct Newton iteration for .op point succeeded.

Date: Sun Apr  2 16:49:41 2023
Total elapsed time: 0.107 seconds.

tnom = 27
temp = 27
method = trap
totiter = 4
traniter = 0
tranpoints = 0
accept = 0
rejected = 0
matrix size = 18
fillins = 0
solver = Normal
Avg thread counts: 8.0/0.0/8.0/1.1
Matrix Compiler1:      44 opcodes
Matrix Compiler2: 1.25 KB object code size
